WAY-254011
     RDKit          3D

 39 43  0  0  0  0  0  0  0  0999 V2000
   -2.7259   -2.3834   -1.6352 C   0  0  0  0  0  0  0  0  0  0  0  0
   -3.2257   -3.5212   -2.2372 C   0  0  0  0  0  0  0  0  0  0  0  0
   -4.2394   -4.2598   -1.6374 C   0  0  0  0  0  0  0  0  0  0  0  0
   -4.7286   -3.8357   -0.4419 C   0  0  0  0  0  0  0  0  0  0  0  0
   -4.2500   -2.6892    0.2005 C   0  0  0  0  0  0  0  0  0  0  0  0
   -3.2509   -1.9899   -0.4241 C   0  0  0  0  0  0  0  0  0  0  0  0
   -2.7954   -0.8457    0.2499 C   0  0  0  0  0  0  0  0  0  0  0  0
   -3.3198   -0.4637    1.4492 C   0  0  0  0  0  0  0  0  0  0  0  0
   -4.3252   -1.2148    2.0220 C   0  0  0  0  0  0  0  0  0  0  0  0
   -4.7571   -2.3041    1.3771 N   0  0  0  0  0  0  0  0  0  0  0  0
   -2.8593    0.7081    2.1753 C   0  0  0  0  0  0  0  0  0  0  0  0
   -3.3379    2.0141    1.7215 C   0  0  0  0  0  0  0  0  0  0  0  0
   -4.6063    2.4912    2.0102 C   0  0  0  0  0  0  0  0  0  0  0  0
   -4.9710    3.7380    1.5690 C   0  0  0  0  0  0  0  0  0  0  0  0
   -4.1266    4.5654    0.8360 C   0  0  0  0  0  0  0  0  0  0  0  0
   -2.8693    4.0727    0.5591 C   0  0  0  0  0  0  0  0  0  0  0  0
   -2.4923    2.8221    0.9972 C   0  0  0  0  0  0  0  0  0  0  0  0
   -1.7160   -0.1392   -0.4455 C   0  0  0  0  0  0  0  0  0  0  0  0
   -0.4014   -0.3234   -0.0864 C   0  0  0  0  0  0  0  0  0  0  0  0
    0.6511    0.3009   -0.7248 C   0  0  0  0  0  0  0  0  0  0  0  0
    0.2895    1.1406   -1.7705 C   0  0  0  0  0  0  0  0  0  0  0  0
   -1.0114    1.3417   -2.1486 C   0  0  0  0  0  0  0  0  0  0  0  0
   -2.0348    0.7027   -1.4898 C   0  0  0  0  0  0  0  0  0  0  0  0
    1.9792    0.1182   -0.3661 O   0  0  0  0  0  0  0  0  0  0  0  0
    2.9637    0.8198   -1.0988 C   0  0  0  0  0  0  0  0  0  0  0  0
    4.3334    0.5607   -0.6494 C   0  0  0  0  0  0  0  0  0  0  0  0
    4.9317    1.1677    0.4260 C   0  0  0  0  0  0  0  0  0  0  0  0
    6.2435    0.8780    0.7949 C   0  0  0  0  0  0  0  0  0  0  0  0
    6.9797   -0.0410    0.0733 C   0  0  0  0  0  0  0  0  0  0  0  0
    6.3866   -0.6599   -1.0139 C   0  0  0  0  0  0  0  0  0  0  0  0
    5.0857   -0.3567   -1.3600 C   0  0  0  0  0  0  0  0  0  0  0  0
    8.3759   -0.3890    0.4164 C   0  0  0  0  0  0  0  0  0  0  0  0
    9.3514    0.5189   -0.2561 C   0  0  0  0  0  0  0  0  0  0  0  0
    8.9492    1.4327   -0.9971 O   0  0  0  0  0  0  0  0  0  0  0  0
   10.6997    0.3163   -0.0342 O   0  0  0  0  0  0  0  0  0  0  0  0
   -5.8161   -4.5779    0.2558 C   0  0  0  0  0  0  0  0  0  0  0  0
   -6.1839   -5.6819   -0.4991 F   0  0  0  0  0  0  0  0  0  0  0  0
   -5.3642   -4.9805    1.5118 F   0  0  0  0  0  0  0  0  0  0  0  0
   -6.9274   -3.7899    0.4206 F   0  0  0  0  0  0  0  0  0  0  0  0
  1  2  2  0
  2  3  1  0
  3  4  2  0
  4  5  1  0
  5  6  2  0
  6  7  1  0
  7  8  2  0
  8  9  1  0
  9 10  2  0
  8 11  1  0
 11 12  1  0
 12 13  2  0
 13 14  1  0
 14 15  2  0
 15 16  1  0
 16 17  2  0
  7 18  1  0
 18 19  2  0
 19 20  1  0
 20 21  2  0
 21 22  1  0
 22 23  2  0
 20 24  1  0
 24 25  1  0
 25 26  1  0
 26 27  2  0
 27 28  1  0
 28 29  2  0
 29 30  1  0
 30 31  2  0
 29 32  1  0
 32 33  1  0
 33 34  2  0
 33 35  1  0
  4 36  1  0
 36 37  1  0
 36 38  1  0
 36 39  1  0
  6  1  1  0
 10  5  1  0
 17 12  1  0
 23 18  1  0
 31 26  1  0
M  END
$$$$
